
**** 04/05/22 16:28:49 ******** PSpice 9.2.3 (Jan 2002) ******* ID# 251265024 

 ** Profile: "SCHEMATIC1-LAB11-2"  [ D:\KMITL\year1\term2\Circuit&Electronics\LAB\lab11-2-SCHEMATIC1-LAB11-2.sim ] 


 ****     CIRCUIT DESCRIPTION


******************************************************************************




** Creating circuit file "lab11-2-SCHEMATIC1-LAB11-2.sim.cir" 
** WARNING: THIS AUTOMATICALLY GENERATED FILE MAY BE OVERWRITTEN BY SUBSEQUENT SIMULATIONS

*Libraries: 
* Local Libraries :
* From [PSPICE NETLIST] section of C:\Cadence\Orcad_9.2.3\tools\PSpice\PSpice.ini file:
.lib "nom.lib" 

*Analysis directives: 
.TRAN  0 50ms 0 
.PROBE V(alias(*)) I(alias(*)) W(alias(*)) D(alias(*)) NOISE(alias(*)) 
.INC ".\lab11-2-SCHEMATIC1.net" 



**** INCLUDING lab11-2-SCHEMATIC1.net ****
* source LAB11-2
D_D1         N12570 N12648 D1N4001 
V_V16         N12375 0  
+SIN 0 4 500 0 0 0
D_D2         N12603 N12648 D1N4001 
X_U2A         N12342 N12375 V+ V- N12570 LM358
V_V13         N12342 0 1Vdc
V_V14         N13025 0 -1Vdc
R_R37         VO9 V+  1k  
R_R38         0 VO9  1k  
V_V6         V+ 0 12Vdc
X_U1A         N12375 N13025 V+ V- N12603 LM358
Q_Q1         VO9 N12703 0 Q2N3904
R_R35         N12648 N12703  10k  
V_V7         V- 0 -12Vdc
R_R36         0 N12703  10k  

**** RESUMING lab11-2-SCHEMATIC1-LAB11-2.sim.cir ****
.END

**** 04/05/22 16:28:49 ******** PSpice 9.2.3 (Jan 2002) ******* ID# 251265024 

 ** Profile: "SCHEMATIC1-LAB11-2"  [ D:\KMITL\year1\term2\Circuit&Electronics\LAB\lab11-2-SCHEMATIC1-LAB11-2.sim ] 


 ****     Diode MODEL PARAMETERS


******************************************************************************




               D1N4001         X_U2A.x_lm358.dx 
          IS   14.110000E-09  800.000000E-18 
           N    1.984                        
         IKF   94.81                         
          BV   75                            
         IBV   10.000000E-06                 
          RS     .03389         1            
          TT    5.700000E-06                 
         CJO   25.890000E-12                 
          VJ     .3245                       
           M     .44                         


               X_U2A.x_lm358.dy 
          IS  800.000000E-18 
          RS    1.000000E-03 
         CJO   10.000000E-12 


               X_U1A.x_lm358.dx 
          IS  800.000000E-18 
          RS    1            


               X_U1A.x_lm358.dy 
          IS  800.000000E-18 
          RS    1.000000E-03 
         CJO   10.000000E-12 


**** 04/05/22 16:28:49 ******** PSpice 9.2.3 (Jan 2002) ******* ID# 251265024 

 ** Profile: "SCHEMATIC1-LAB11-2"  [ D:\KMITL\year1\term2\Circuit&Electronics\LAB\lab11-2-SCHEMATIC1-LAB11-2.sim ] 


 ****     BJT MODEL PARAMETERS


******************************************************************************




               Q2N3904         X_U2A.x_lm358.qx 
               NPN             PNP             
          IS    6.734000E-15  800.000000E-18 
          BF  416.4           166.7          
          NF    1               1            
         VAF   74.03                         
         IKF     .06678                      
         ISE    6.734000E-15                 
          NE    1.259                        
          BR     .7371          1            
          NR    1               1            
          RB   10                            
          RC    1                            
         CJE    4.493000E-12                 
         MJE     .2593                       
         CJC    3.638000E-12                 
         MJC     .3085                       
          TF  301.200000E-12                 
         XTF    2                            
         VTF    4                            
         ITF     .4                          
          TR  239.500000E-09                 
         XTB    1.5                          
          CN    2.42            2.2          
           D     .87             .52         


               X_U1A.x_lm358.qx 
               PNP             
          IS  800.000000E-18 
          BF  166.7          
          NF    1            
          BR    1            
          NR    1            
          CN    2.2          
           D     .52         


**** 04/05/22 16:28:49 ******** PSpice 9.2.3 (Jan 2002) ******* ID# 251265024 

 ** Profile: "SCHEMATIC1-LAB11-2"  [ D:\KMITL\year1\term2\Circuit&Electronics\LAB\lab11-2-SCHEMATIC1-LAB11-2.sim ] 


 ****     Current Controlled Switch MODEL PARAMETERS


******************************************************************************




               X_U2A.x_lm358.sw2 
         RON    1            
        ROFF   10.000000E+06 
         ION    0            
        IOFF   -1.000000E-06 


               X_U2A.x_lm358.sw1 
         RON    1            
        ROFF   10.000000E+06 
         ION   -1.000000E-06 
        IOFF    0            


               X_U2A.x_lm358.sw3 
         RON    1            
        ROFF   10.000000E+06 
         ION   -1.000000E-06 
        IOFF    0            


               X_U2A.x_lm358.sw4 
         RON    1            
        ROFF   10.000000E+06 
         ION    0            
        IOFF   -1.000000E-06 


               X_U1A.x_lm358.sw2 
         RON    1            
        ROFF   10.000000E+06 
         ION    0            
        IOFF   -1.000000E-06 


               X_U1A.x_lm358.sw1 
         RON    1            
        ROFF   10.000000E+06 
         ION   -1.000000E-06 
        IOFF    0            


               X_U1A.x_lm358.sw3 
         RON    1            
        ROFF   10.000000E+06 
         ION   -1.000000E-06 
        IOFF    0            


               X_U1A.x_lm358.sw4 
         RON    1            
        ROFF   10.000000E+06 
         ION    0            
        IOFF   -1.000000E-06 


**** 04/05/22 16:28:49 ******** PSpice 9.2.3 (Jan 2002) ******* ID# 251265024 

 ** Profile: "SCHEMATIC1-LAB11-2"  [ D:\KMITL\year1\term2\Circuit&Electronics\LAB\lab11-2-SCHEMATIC1-LAB11-2.sim ] 


 ****     INITIAL TRANSIENT SOLUTION       TEMPERATURE =   27.000 DEG C


******************************************************************************



 NODE   VOLTAGE     NODE   VOLTAGE     NODE   VOLTAGE     NODE   VOLTAGE


(   V+)   12.0000  (   V-)  -12.0000  (  VO9)     .0957  (N12342)    1.0000     

(N12375)    0.0000 (N12570)   11.3160 (N12603)   11.3160 (N12648)   10.7780     

(N12703)     .7462 (N13025)   -1.0000 (X_U1A.x_lm358.6)   -1.5048               

(X_U1A.x_lm358.7)   13.3460           (X_U1A.x_lm358.8)   13.3460               

(X_U1A.x_lm358.9)    0.0000           (X_U1A.x_lm358.a)   11.9590               

(X_U1A.x_lm358.b)    -.0406           (X_U2A.x_lm358.6)   -1.4914               

(X_U2A.x_lm358.7)   13.3460           (X_U2A.x_lm358.8)   13.3460               

(X_U2A.x_lm358.9)    0.0000           (X_U2A.x_lm358.a)   11.9590               

(X_U2A.x_lm358.b)    -.0406           (X_U1A.x_lm358.10)    -.3603              

(X_U1A.x_lm358.11)  -11.9200          (X_U1A.x_lm358.12)  -12.0000              

(X_U1A.x_lm358.13)    -.3882          (X_U1A.x_lm358.14)    -.3603              

(X_U1A.x_lm358.53)   10.5000          (X_U1A.x_lm358.54)  -11.1780              

(X_U1A.x_lm358.90)   40.6100          (X_U1A.x_lm358.91)   40.0000              

(X_U1A.x_lm358.92)  -40.0000          (X_U1A.x_lm358.99)    0.0000              

(X_U2A.x_lm358.10)     .6395          (X_U2A.x_lm358.11)  -11.9210              

(X_U2A.x_lm358.12)  -12.0000          (X_U2A.x_lm358.13)     .6117              

(X_U2A.x_lm358.14)     .6395          (X_U2A.x_lm358.53)   10.5000              

(X_U2A.x_lm358.54)  -11.1780          (X_U2A.x_lm358.90)   40.6100              

(X_U2A.x_lm358.91)   40.0000          (X_U2A.x_lm358.92)  -40.0000              

(X_U2A.x_lm358.99)    0.0000          




    VOLTAGE SOURCE CURRENTS
    NAME         CURRENT

    V_V16        8.967E-08
    V_V13       -1.300E-11
    V_V14        9.013E-08
    V_V6        -1.823E-02
    V_V7         5.318E-03
    X_U2A.x_lm358.vb  -1.491E-05
    X_U2A.x_lm358.vc  -4.011E-02
    X_U2A.x_lm358.ve   2.183E-11
    X_U2A.x_lm358.vlim   4.061E-02
    X_U2A.x_lm358.vlp   1.379E-05
    X_U2A.x_lm358.vln  -8.061E-11
    X_U1A.x_lm358.vb  -1.505E-05
    X_U1A.x_lm358.vc  -4.011E-02
    X_U1A.x_lm358.ve   2.183E-11
    X_U1A.x_lm358.vlim   4.061E-02
    X_U1A.x_lm358.vlp   1.393E-05
    X_U1A.x_lm358.vln  -8.061E-11

    TOTAL POWER DISSIPATION   4.02E-01  WATTS


ERROR -- Convergence problem in transient analysis at Time =  2.089E-03
         Time step =  29.00E-15, minimum allowable step size =  50.00E-15

  These voltages failed to converge:

    V(X_U2A.x_lm358.a)        =    2.462uV  \   -79.55MV
    V(X_U2A.x_lm358.b)        =    -12.00V  \   -79.55MV

  These supply currents failed to converge:

    I(V_V6)                   =   -18.23mA  \    -16.08A
    I(V_V7)                   =    5.325mA  \     16.06A

ERROR -- Discontinuing simulation due to convergence problem


  Last node voltages tried were:

 NODE   VOLTAGE     NODE   VOLTAGE     NODE   VOLTAGE     NODE   VOLTAGE


(   V+)   12.0000  (   V-)  -12.0000  (  VO9)     .0957  (N12342)    1.0000     

(N12375)    1.1025 (N12570)   11.2250 (N12603)   11.3150 (N12648)   10.7500     

(N12703)     .7462 (N13025)   -1.0000 (X_U1A.x_lm358.6)   -1.5056               

(X_U1A.x_lm358.7)   13.3450           (X_U1A.x_lm358.8)   13.3450               

(X_U1A.x_lm358.9)    0.0000           (X_U1A.x_lm358.a)   11.9590               

(X_U1A.x_lm358.b)    -.0406           (X_U2A.x_lm358.6)    -.0077               

(X_U2A.x_lm358.7)   11.2250           (X_U2A.x_lm358.8)   11.2250               

(X_U2A.x_lm358.9)    0.0000           (X_U2A.x_lm358.a) 2.462E-06               

(X_U2A.x_lm358.b)  -12.0000           (X_U1A.x_lm358.10)    -.3603              

(X_U1A.x_lm358.11)  -11.9200          (X_U1A.x_lm358.12)  -12.0000              

(X_U1A.x_lm358.13)    -.3882          (X_U1A.x_lm358.14)    -.3603              

(X_U1A.x_lm358.53)   10.5000          (X_U1A.x_lm358.54)  -11.1780              

(X_U1A.x_lm358.90)   40.6100          (X_U1A.x_lm358.91)   40.0000              

(X_U1A.x_lm358.92)  -40.0000          (X_U1A.x_lm358.99)    0.0000              

(X_U2A.x_lm358.10)    1.6366          (X_U2A.x_lm358.11)  -11.9960              

(X_U2A.x_lm358.12)  -11.9250          (X_U2A.x_lm358.13)    1.6353              

(X_U2A.x_lm358.14)    1.6103          (X_U2A.x_lm358.53)   10.5000              

(X_U2A.x_lm358.54)  -11.1780          (X_U2A.x_lm358.90)    -.0013              

(X_U2A.x_lm358.91)   40.0000          (X_U2A.x_lm358.92)  -40.0000              

(X_U2A.x_lm358.99)    0.0000          



          JOB CONCLUDED

**** 04/05/22 16:28:49 ******** PSpice 9.2.3 (Jan 2002) ******* ID# 251265024 

 ** Profile: "SCHEMATIC1-LAB11-2"  [ D:\KMITL\year1\term2\Circuit&Electronics\LAB\lab11-2-SCHEMATIC1-LAB11-2.sim ] 


 ****     JOB STATISTICS SUMMARY


******************************************************************************



  Total job time (using Solver 0)   =         .09
